18
opt.xyz
C          2.45076       -0.71174        0.00000
C          2.45076        0.71174        0.00000
C          1.25139        1.41137        0.00000
C         -0.00000        0.72289        0.00000
C         -1.25139        1.41137        0.00000
C         -2.45076        0.71174        0.00000
C         -2.45076       -0.71174        0.00000
C         -1.25139       -1.41137        0.00000
C         -0.00000       -0.72289        0.00000
C          1.25139       -1.41137        0.00000
H          3.40873       -1.25791        0.00000
H          3.40873        1.25791        0.00000
H          1.24972        2.51472        0.00000
H         -1.24972        2.51472        0.00000
H         -3.40873        1.25791        0.00000
H         -3.40873       -1.25791        0.00000
H         -1.24972       -2.51472        0.00000
H          1.24972       -2.51472        0.00000
